tests/data/psse/contingency/select_v33.raw
 0,    100.00, 33, 0, 0, 60.00
select_v33
six buses over three areas, four zones, and three owners, at four base kV levels: two in-subsystem branches, a skippable parallel circuit, two ties, one out of service tie, machines on three buses, and two three winding transformers
   101,'B101        ', 230.0000,3,   1,   1,   1,1.00000000,   0.000000, 1.10000, 0.90000
   102,'B102        ', 230.0000,2,   1,   1,   1,1.00000000,   0.000000, 1.10000, 0.90000
   103,'B103        ', 138.0000,1,   1,   2,   2,1.00000000,   0.000000, 1.10000, 0.90000
   201,'B201        ', 230.0000,2,   2,   3,   1,1.00000000,   0.000000, 1.10000, 0.90000
   202,'B202        ',  69.0000,1,   2,   3,   3,1.00000000,   0.000000, 1.10000, 0.90000
   203,'B203        ',  13.8000,1,   3,   4,   1,1.00000000,   0.000000, 1.10000, 0.90000
0 / END OF BUS DATA, BEGIN LOAD DATA
   103,'1 ',1,   1,   2,    40.000,    12.000,     0.000,     0.000,     0.000,     0.000,   2,1
   202,'1 ',1,   2,   3,    25.000,     8.000,     0.000,     0.000,     0.000,     0.000,   3,1
0 / END OF LOAD DATA, BEGIN FIXED SHUNT DATA
0 / END OF FIXED SHUNT DATA, BEGIN GENERATOR DATA
   101,'1 ',    60.000,     5.000,   100.000,  -100.000,1.00000,    0,   100.000,   0.00000,   1.00000,   0.00000,   0.00000,1.00000,1,  100.0,   200.000,     0.000,   1,1.0000
   101,'2 ',    40.000,     4.000,   100.000,  -100.000,1.00000,    0,   100.000,   0.00000,   1.00000,   0.00000,   0.00000,1.00000,1,  100.0,   150.000,     0.000,   1,1.0000
   103,'1 ',    20.000,     3.000,   100.000,  -100.000,1.00000,    0,   100.000,   0.00000,   1.00000,   0.00000,   0.00000,1.00000,0,  100.0,   150.000,     0.000,   2,1.0000
   201,'1 ',    30.000,     2.000,   100.000,  -100.000,1.00000,    0,   100.000,   0.00000,   1.00000,   0.00000,   0.00000,1.00000,1,  100.0,   150.000,     0.000,   1,1.0000
0 / END OF GENERATOR DATA, BEGIN BRANCH DATA
   101,   102,'1 ',1.00000E-2,8.00000E-2,2.00000E-2, 250.00,   0.00,   0.00,  0.00000,  0.00000,  0.00000,  0.00000,1,1,   0.0,   1,1.0000
   101,   102,'2 ',1.10000E-2,8.20000E-2,2.00000E-2, 250.00,   0.00,   0.00,  0.00000,  0.00000,  0.00000,  0.00000,1,1,   0.0,   1,1.0000
   102,   103,'1 ',1.20000E-2,9.00000E-2,1.80000E-2, 250.00,   0.00,   0.00,  0.00000,  0.00000,  0.00000,  0.00000,1,1,   0.0,   1,1.0000
   103,   201,'1 ',1.30000E-2,9.50000E-2,1.60000E-2, 250.00,   0.00,   0.00,  0.00000,  0.00000,  0.00000,  0.00000,1,1,   0.0,   2,1.0000
   201,   202,'1 ',1.50000E-2,1.10000E-1,0.00000E0, 150.00,   0.00,   0.00,  0.00000,  0.00000,  0.00000,  0.00000,1,1,   0.0,   1,1.0000
   102,   201,'1 ',1.40000E-2,1.00000E-1,1.40000E-2, 250.00,   0.00,   0.00,  0.00000,  0.00000,  0.00000,  0.00000,0,1,   0.0,   1,1.0000
0 / END OF BRANCH DATA, BEGIN TRANSFORMER DATA
   101,   102,   103,'1 ',1,1,1,0.00000E0,0.00000E0,2,'T3WA        ',1,   1,1.0000
1.00000E-2,1.00000E-1, 100.00,2.00000E-2,2.00000E-1, 100.00,3.00000E-2,3.00000E-1, 100.00,1.000000,   0.000
1.000000,230.000,   0.000, 100.00,  90.00,  80.00, 0,     0, 1.10000, 0.90000, 1.10000, 0.90000,  33, 0, 0.00000, 0.00000,  0.000
1.000000,230.000,   0.000, 110.00,   0.00,   0.00, 0,     0, 1.10000, 0.90000, 1.10000, 0.90000,  33, 0, 0.00000, 0.00000,  0.000
1.000000,138.000,   0.000,  50.00,   0.00,   0.00, 0,     0, 1.10000, 0.90000, 1.10000, 0.90000,  33, 0, 0.00000, 0.00000,  0.000
   201,   202,   203,'1 ',1,1,1,0.00000E0,0.00000E0,2,'T3WB        ',1,   1,1.0000
1.00000E-2,1.00000E-1, 100.00,2.00000E-2,2.00000E-1, 100.00,3.00000E-2,3.00000E-1, 100.00,1.000000,   0.000
1.000000,230.000,   0.000, 100.00,  90.00,  80.00, 0,     0, 1.10000, 0.90000, 1.10000, 0.90000,  33, 0, 0.00000, 0.00000,  0.000
1.000000, 69.000,   0.000, 110.00,   0.00,   0.00, 0,     0, 1.10000, 0.90000, 1.10000, 0.90000,  33, 0, 0.00000, 0.00000,  0.000
1.000000, 13.800,   0.000,  50.00,   0.00,   0.00, 0,     0, 1.10000, 0.90000, 1.10000, 0.90000,  33, 0, 0.00000, 0.00000,  0.000
0 / END OF TRANSFORMER DATA, BEGIN AREA DATA
   1,    0,     0.000,     1.000,'AREA1       '
   2,    0,     0.000,     1.000,'AREA2       '
   3,    0,     0.000,     1.000,'AREA3       '
0 / END OF AREA DATA, BEGIN TWO-TERMINAL DC DATA
0 / END OF TWO-TERMINAL DC DATA, BEGIN VOLTAGE SOURCE CONVERTER DATA
0 / END OF VOLTAGE SOURCE CONVERTER DATA, BEGIN IMPEDANCE CORRECTION DATA
0 / END OF IMPEDANCE CORRECTION DATA, BEGIN MULTI-TERMINAL DC DATA
0 / END OF MULTI-TERMINAL DC DATA, BEGIN MULTI-SECTION LINE DATA
0 / END OF MULTI-SECTION LINE DATA, BEGIN ZONE DATA
   1,'Z1      '
   2,'Z2      '
   3,'Z3      '
   4,'Z4      '
0 / END OF ZONE DATA, BEGIN INTER-AREA TRANSFER DATA
0 / END OF INTER-AREA TRANSFER DATA, BEGIN OWNER DATA
    1,'O1'
    2,'O2'
    3,'O3'
0 / END OF OWNER DATA, BEGIN FACTS CONTROL DEVICE DATA
0 / END OF FACTS CONTROL DEVICE DATA, BEGIN SWITCHED SHUNT DATA
0 /END OF SWITCHED SHUNT DATA, BEGIN GNE DEVICE DATA
0 /END OF GNE DEVICE DATA
Q
